Version 4.1
SHEET 1 1724 868
WIRE -176 -384 -320 -384
WIRE 352 -384 -176 -384
WIRE 352 -304 352 -384
WIRE 352 -304 176 -304
WIRE 1152 -304 352 -304
WIRE 48 -256 -448 -256
WIRE 48 -240 48 -256
WIRE 1152 -192 1152 -304
WIRE 1152 -192 1136 -192
WIRE 1632 -192 1152 -192
WIRE 464 -176 352 -176
WIRE 1136 -176 1136 -192
WIRE 1136 -176 592 -176
WIRE 48 -144 -80 -144
WIRE -1248 -80 -1344 -80
WIRE -448 -80 -448 -256
WIRE -448 -80 -1248 -80
WIRE -1344 0 -1472 0
WIRE -176 32 -176 -384
WIRE 160 32 -176 32
WIRE 592 80 592 -176
WIRE 1136 96 1136 -176
WIRE 1632 128 1632 -192
WIRE -1200 144 -1344 144
WIRE -624 144 -624 128
WIRE -624 144 -1200 144
WIRE 464 144 464 -176
WIRE 1008 160 896 160
WIRE -1344 176 -1344 144
WIRE -320 176 -320 -384
WIRE 896 208 896 160
WIRE 896 208 768 208
WIRE 1376 224 1312 224
WIRE 1456 224 1376 224
WIRE -448 240 -448 -80
WIRE 464 240 384 240
WIRE -1472 256 -1472 0
WIRE -1344 256 -1472 256
WIRE 896 256 896 208
WIRE 1008 256 896 256
WIRE -80 304 -80 -144
WIRE -80 304 -144 304
WIRE 176 336 176 -48
WIRE 464 336 176 336
WIRE 1376 384 1376 224
WIRE -624 448 -624 144
WIRE -448 448 -448 336
WIRE -448 448 -624 448
WIRE 160 496 160 32
WIRE 160 496 144 496
WIRE -80 560 -80 304
WIRE 32 560 -80 560
WIRE 336 624 320 624
WIRE 384 624 384 240
WIRE 384 624 336 624
WIRE -448 656 -448 448
WIRE 32 656 -448 656
WIRE -1472 688 -1472 256
WIRE -784 688 -1472 688
WIRE 1136 688 1136 352
WIRE 1376 688 1376 448
WIRE 1376 688 1136 688
WIRE 1632 688 1632 208
WIRE 1632 688 1376 688
WIRE -784 832 -784 688
WIRE -320 832 -320 432
WIRE -320 832 -784 832
WIRE 160 832 160 752
WIRE 160 832 -320 832
WIRE 416 832 160 832
WIRE 464 832 464 336
WIRE 464 832 416 832
WIRE 592 832 592 336
WIRE 592 832 464 832
WIRE 1136 832 1136 688
WIRE 1136 832 592 832
WIRE 160 848 160 832
FLAG -1248 -80 in1
IOPIN -1248 -80 In
FLAG -1200 144 in2
IOPIN -1200 144 In
FLAG 1456 224 vout
IOPIN 1456 224 Out
FLAG 416 832 0
SYMBOL nor_cos 1040 192 R0
SYMATTR InstName X4
SYMBOL voltage -1344 -96 R0
WINDOW 123 0 0 Left 0
WINDOW 39 0 0 Left 0
SYMATTR InstName V1
SYMATTR Value PULSE(0 1.8 0 0.1n 0.1n 10n 20n)
SYMBOL voltage -1344 160 R0
WINDOW 123 0 0 Left 0
WINDOW 39 0 0 Left 0
SYMATTR InstName V2
SYMATTR Value PULSE(0 1.8 0 0.1n 0.1n 30n 60n)
SYMBOL cap 1360 384 R0
SYMATTR InstName C1
SYMATTR Value 50f
SYMBOL voltage 1632 112 R0
WINDOW 123 0 0 Left 0
WINDOW 39 0 0 Left 0
SYMATTR InstName V3
SYMATTR Value 1.8
SYMBOL nor_cos -416 272 R0
SYMATTR InstName X1
SYMBOL nor_cos 80 -208 R0
SYMATTR InstName X2
SYMBOL nor_cos 64 592 R0
SYMATTR InstName X3
SYMBOL nor_cos 496 176 R0
SYMATTR InstName X5
TEXT -1480 328 Left 2 !.tran 0 100n 0 0.01n
