Version 4.1
SHEET 1 2500 1720
WIRE -1680 -480 -2432 -480
WIRE 256 -464 -1456 -464
WIRE 1072 -464 256 -464
WIRE 1616 -464 1072 -464
WIRE 1808 -464 1616 -464
WIRE 256 -336 256 -464
WIRE -1680 -160 -1680 -480
WIRE -1680 -160 -1872 -160
WIRE -160 -160 -1680 -160
WIRE 1392 -48 736 -48
WIRE -160 16 -464 16
WIRE -1456 144 -1456 -464
WIRE 1808 192 1808 -464
WIRE 1072 256 1072 -464
WIRE 1072 256 576 256
WIRE -1872 320 -1872 -160
WIRE -1872 336 -1872 320
WIRE 1392 368 1392 -48
WIRE -464 432 -464 16
WIRE -464 432 -976 432
WIRE 2288 480 2272 480
WIRE 2432 480 2288 480
WIRE 2496 480 2432 480
WIRE 576 544 576 256
WIRE 576 544 240 544
WIRE 1392 544 720 544
WIRE -1456 688 -1456 672
WIRE 240 816 240 544
WIRE -1872 896 -1872 496
WIRE -1872 896 -2368 896
WIRE -464 992 -464 432
WIRE -176 992 -464 992
WIRE 720 1104 720 544
WIRE -1872 1152 -1872 896
WIRE -1872 1168 -1872 1152
WIRE -176 1168 -1872 1168
WIRE 240 1360 192 1360
FLAG -1872 -160 vin1
IOPIN -1872 -160 In
FLAG -1872 1152 vin2
IOPIN -1872 1152 In
FLAG 2288 480 vout
FLAG 1808 736 0
FLAG 1616 -384 0
FLAG 192 1360 0
FLAG 256 208 0
FLAG -1456 688 0
FLAG -2368 976 0
FLAG -2432 -400 0
FLAG 2432 544 0
SYMBOL nandd 160 -48 R0
SYMATTR InstName X1
SYMBOL nandd 144 1104 R0
SYMATTR InstName X2
SYMBOL nandd 1712 480 R0
SYMATTR InstName X3
SYMBOL nandd -1552 432 R0
SYMATTR InstName X4
SYMBOL voltage 1616 -480 R0
WINDOW 123 0 0 Left 0
WINDOW 39 0 0 Left 0
SYMATTR InstName V1
SYMATTR Value 1.8
SYMBOL voltage -2432 -496 R0
WINDOW 123 0 0 Left 0
WINDOW 39 0 0 Left 0
SYMATTR InstName V2
SYMATTR Value PULSE(0 1.8 0 0.1n 0.1n 10n 20n)
SYMBOL voltage -2368 880 R0
WINDOW 123 0 0 Left 0
WINDOW 39 0 0 Left 0
SYMATTR InstName V3
SYMATTR Value PULSE(0 1.8 0 0.1n 0.1n 20n 40n)
SYMBOL cap 2416 480 R0
SYMATTR InstName C1
SYMATTR Value 50f
TEXT -2768 1704 Left 2 !.tran 0 100n 0 0.01n
